
**********************************************************
*This Pspice-Library assembled on 4/21, 2023
*Rev 1.0
*For additional information, see www.monolithicpower.com

*Note:
*===============================================================
*Using these models outside its specification can lead to false results.
*The models describe the behaviour of typical elements, please keep in mind 
*the following: Real components can vary in the range given in the datasheets.
*************************************************************



**$ENCRYPTED_LIB
**$INTERFACE

.SUBCKT MPQ8112 GND OUT RG1 RG2 V5 VCC  
$CDNENCSTART_ADV2
17f62b1fb318c25603aeb85644ae98a5d179ef807807791f6459efacb9d7ffc37a831b146dc0f06bb1ef275619162e6d8f7ad0dc708bf15ae1a1d5bd0ae623b2
3829df3b4c7dcc0588ec3b3ee7b3780623a4e644735a033160d4992b1a1e60a72f4f472ad73c590eda6fd74a104c3e8a6a8e44e1b1ad01ac6d0e393d56874807
365bd555ded2ff9714b2f93c8791c88150c4ed9453564b50ed44d12da2b8a43aac2913954fd4af7766a9f7716d00790cc441094466807f26bb96fb66fc284041
2faf869c16ad39e8e4e6e5a3582423045a836358706ee7764dd0d15b6d620ed2f1e9cdb19e2fa45a5ea0cbd624b9a1378bb1dac9b94e12b8ab597b3d9b913b0c
3483f6d20f8bcf186158941e3bebb71501e3971f57846daeb106c5e438c2df4fdad46f6864b6de9b3fdd5be15274c8a1d02d38b83b1ab91e8f3d565659a4a256
7d6e483dba99b52a093ea1cf5841f9f5fcacaa2ce00b86188397202d39b47519d349d953708c497b04060a75c837f9c2b33dd1c269c180476dcc4c8daca6784a
fc163ead7a5c1762867e3812e812e2440db01aab8fbc9e2cd726395c7c09058d3a19e794bcf75d5f5920938793aa8243ecbcf8e8d56eb125eb1cb1d0c630a34b
eefce90e6207c76a3a83bc09bc14b07fe0483e789ee94737e0d1333d4e27dd6c074da32dfe3307108cf0a5a307c9da05d8129ff99b279f305ea662e0a208c51d
c0257e576808bd07bc94aee5c43e6f458d6caefb3cdb041655f6247211271a0e64c1665e46a73f6ba26da4cce85a5d32188570f30e8a3468cfa980071c5016df
9ff5b1b1c2510ed21c8d2900f18a6b3b9189809fb0299988d0bb05529883fd7164c1665e46a73f6ba26da4cce85a5d32188570f30e8a3468cfa980071c5016df
36b2b772bde0d04add2d39380874ba03354d105fe8495351aee2e31771894dd66cf99f7e584fe2adfe619ad0d3f4a443b2f279ec95ef5b398f9184397486b4cb
950f1bc033c0e7b428860ef4d30c142c4bc7924030e051fec31ac95672a17339be1834333cf08f30216aaf3921aaecdafcfad5a2eeb950b420cd0aea57fb4aca
b05f77bf93bbf2257d5ae48ae25bb15a0907566d91155198c5f6b15f29680d682af9c780c79b7cf5f657d107dfd13669bbc1947c1f70f80549e46e0468d796de
307a3424e8d2c0ab12370ee547f6cc3a5bc969b5b92059fc853a6cf35795a3ca6cf99f7e584fe2adfe619ad0d3f4a443b2f279ec95ef5b398f9184397486b4cb
950f1bc033c0e7b428860ef4d30c142c4bc7924030e051fec31ac95672a17339be1834333cf08f30216aaf3921aaecdafcfad5a2eeb950b420cd0aea57fb4aca
b05f77bf93bbf2257d5ae48ae25bb15a0907566d91155198c5f6b15f29680d682af9c780c79b7cf5f657d107dfd13669bbc1947c1f70f80549e46e0468d796de
d07dbbaa5a4acd55e2d7437ddce0f3e0b5de3751d1692f35a0ec96518bc9a953d349d953708c497b04060a75c837f9c2b33dd1c269c180476dcc4c8daca6784a
e63326e44f62163aec3aa107a11450d527d7a18d6376d90666ac6cf9fa5600c1d349d953708c497b04060a75c837f9c2b33dd1c269c180476dcc4c8daca6784a
f79068e6584188e6b62798992d6bcce133f5329c84f6a00897ccb28717acbd52defd839737b513cdad7feb825a770f20b51094c58a754bbcd10d1ce87c7f6fe2
ae6785d6b9e7849b810aebf372d89c58b1891e0c84146cad7882ba7a956e1c994bc7924030e051fec31ac95672a173396c66cc24457663d0abbb4daa8118c813
1263e2e64972953690c9338760faecafeba19e0749712b6469fe0a2354919c164bc7924030e051fec31ac95672a173396c66cc24457663d0abbb4daa8118c813
$CDNENCFINISH_ADV2
.ENDS

.subckt MPQ8112_F1 1 2 3 4  
$CDNENCSTART_ADV2
17f62b1fb318c25603aeb85644ae98a5d179ef807807791f6459efacb9d7ffc37a831b146dc0f06bb1ef275619162e6d8f7ad0dc708bf15ae1a1d5bd0ae623b2
1b9dbe06e7cacf5bb83ea72571099912e708c3150cc5d3d8dc011f28cd378b8bb4b5ddcee77bce56545ce0b28904c58dbb8eeadb22fe983a101239d91c7a4e7e
2766e9eed1178ed2af9b6a0ae452691fb4eba669186029e0b2d2be2d29f7d0ba60e340c18622ef046775e07b7a112428cc3efa6c08cfebe86fe3ad8373b36a34
$CDNENCFINISH_ADV2
.ends MPQ8112_F1


.SUBCKT AND4_BB IN1 IN2 IN3 IN4 OUT VSS PARAMS: VDD=1 VTH=0.5

$CDNENCSTART_ADV2
17f62b1fb318c25603aeb85644ae98a5d179ef807807791f6459efacb9d7ffc37a831b146dc0f06bb1ef275619162e6d8f7ad0dc708bf15ae1a1d5bd0ae623b2
325d40bb8cce051d8e14a1dad937553e68059822f16a8428a54fa3f05a777aee6761d2524af01e3045c2f67f98e925e9b4af1084190301752c954ff561391bc1

d01fc2d5e5ce53e51459955260014eb804979da8cac3ee6555395485abbca7c960e340c18622ef046775e07b7a112428cc3efa6c08cfebe86fe3ad8373b36a34

af013dc5279887241abf136d0ab947d34dca6c05c586004d01540a6978c9317b6761d2524af01e3045c2f67f98e925e9b4af1084190301752c954ff561391bc1

738e66022f60e35237e76ac2c00227949a5fd8b87905bb77f84e6ac2ed6bda736761d2524af01e3045c2f67f98e925e9b4af1084190301752c954ff561391bc1

f5871e8a730225d5c99038b3fae42f7d4c3a68d5ac0b50561c81e5c6cccd214a6761d2524af01e3045c2f67f98e925e9b4af1084190301752c954ff561391bc1

2840088971eb31bfe37176dd4fd079fe4ae55e92b20cd001af23f924e532cd4f6761d2524af01e3045c2f67f98e925e9b4af1084190301752c954ff561391bc1

bea662295a4b532857019cd9622f4f20bbc41c63e42fb1d037ffff2a18a8e0eda074e3b0825cce65d347d5f1a5209ba25457b475c58c507537494e3b84f67603
db4089de2695b19fb68d66c2c08459941f2812eefa8e3dc0bc0ef7b7fe87f9b4f9f71a5aa2c3b27b54c9fb0fb4a6988a6fc619d6559b2009ec22dfd1758095f7

051b3707b29b91d91bc62fe36dca4919ecb6a830fac73b9aca2e46082196a9ef038e9634960a9d5ac2b314dce46c8fc38439d988c7e589e5e91f33241c06a031
26b31d47617ed42a87a7426859c95519716cb222fe06d25b37055779f2b4ffd6bf0af1afef0aabb29db0b29e03ce9235436c6c663b45b4139a434298bc49cc5b

$CDNENCFINISH_ADV2
.ENDS AND4_BB


.SUBCKT OR4_BB IN1 IN2 IN3 IN4 OUT VSS  PARAMS: VDD=1 VTH=0.5

$CDNENCSTART_ADV2
17f62b1fb318c25603aeb85644ae98a5d179ef807807791f6459efacb9d7ffc37a831b146dc0f06bb1ef275619162e6d8f7ad0dc708bf15ae1a1d5bd0ae623b2
2840088971eb31bfe37176dd4fd079fe4ae55e92b20cd001af23f924e532cd4f6761d2524af01e3045c2f67f98e925e9b4af1084190301752c954ff561391bc1
f5871e8a730225d5c99038b3fae42f7d4c3a68d5ac0b50561c81e5c6cccd214a6761d2524af01e3045c2f67f98e925e9b4af1084190301752c954ff561391bc1

325d40bb8cce051d8e14a1dad937553e68059822f16a8428a54fa3f05a777aee6761d2524af01e3045c2f67f98e925e9b4af1084190301752c954ff561391bc1

af013dc5279887241abf136d0ab947d34dca6c05c586004d01540a6978c9317b6761d2524af01e3045c2f67f98e925e9b4af1084190301752c954ff561391bc1

1b5e3e5e1d41dc92cbbe4e894bd14168d57758a365f7cfc175eec66121dc09cc8932fad02e259b49ee13f43c7a36689e350e839f6fb129b70d7dc9004e5e390e
d4578d66e0f8831e1dd409b45f2bd2bf6c64d55c4c3d86609c4339637c17407876e412fe323cc2b86e7c7eefb1593d29498b8e9d4b3e826a90c76fdc10492698

d62d9b333d523aa08f285f5e3e45a4a39cfee170ef63e6ee0f4b7b0671204be2d349d953708c497b04060a75c837f9c2b33dd1c269c180476dcc4c8daca6784a

87aeceb6d37bda8a4164503ec346140304979da8cac3ee6555395485abbca7c960e340c18622ef046775e07b7a112428cc3efa6c08cfebe86fe3ad8373b36a34

738e66022f60e35237e76ac2c00227949a5fd8b87905bb77f84e6ac2ed6bda736761d2524af01e3045c2f67f98e925e9b4af1084190301752c954ff561391bc1

$CDNENCFINISH_ADV2
.ENDS OR4_BB


.SUBCKT AND2_BB IN1 IN2 OUT VSS  PARAMS: VDD=1 VTH=0.5

$CDNENCSTART_ADV2
17f62b1fb318c25603aeb85644ae98a5d179ef807807791f6459efacb9d7ffc37a831b146dc0f06bb1ef275619162e6d8f7ad0dc708bf15ae1a1d5bd0ae623b2
ca0a113326dd5b3ea35bef919acddbf5d57758a365f7cfc175eec66121dc09cc8932fad02e259b49ee13f43c7a36689e7dabdd2a3497e09c7b8874ef1a0a6ec9
3f92541e2e8eca60e7e6e2ef3deb3276b4b5ddcee77bce56545ce0b28904c58d44361ab53cc2454cc1597565fc3616fbe18254dd569e78a2c84c789912a8f703

d62d9b333d523aa08f285f5e3e45a4a39cfee170ef63e6ee0f4b7b0671204be2d349d953708c497b04060a75c837f9c2b33dd1c269c180476dcc4c8daca6784a

255942825d063ab3d9965931cdce102b04979da8cac3ee6555395485abbca7c960e340c18622ef046775e07b7a112428cc3efa6c08cfebe86fe3ad8373b36a34

2840088971eb31bfe37176dd4fd079fe4ae55e92b20cd001af23f924e532cd4f6761d2524af01e3045c2f67f98e925e9b4af1084190301752c954ff561391bc1

f5871e8a730225d5c99038b3fae42f7d4c3a68d5ac0b50561c81e5c6cccd214a6761d2524af01e3045c2f67f98e925e9b4af1084190301752c954ff561391bc1

738e66022f60e35237e76ac2c00227942fdebd21a332f912bb1d20e2cc9fdef9b4b5ddcee77bce56545ce0b28904c58dbb8eeadb22fe983a101239d91c7a4e7e

$CDNENCFINISH_ADV2
.ENDS AND2_BB



.SUBCKT NAND2_BB IN1 IN2 OUT VSS  PARAMS: VDD=1 VTH=0.5

$CDNENCSTART_ADV2
17f62b1fb318c25603aeb85644ae98a5d179ef807807791f6459efacb9d7ffc37a831b146dc0f06bb1ef275619162e6d8f7ad0dc708bf15ae1a1d5bd0ae623b2
55d499e4fe3fd0d65498716b6cc36725015a7979ed760c13a60c3c28f63cf9b2fb2b7315feaeccadb910adfc5bb5412c68bbe536aa86b1a292b0939a38dbf7c3
aa36f6beee945aa56fcbf4f476b8c845d1a60f0adc954a7b73ae7269e3ff72441b75e949ab41fb6f54942f0e499f365cdce9e0fb72e62f13f13b876e7d64b00e
9bf8f39ee56892c837f9c8a2ffd81fb2deea8657cbb8429a2a9fb1f613dcf76b8b6d0d893c36270ce8464d4a32d2629777ce35f0697f7ea469a184dfc8e70037

2840088971eb31bfe37176dd4fd079fe4ae55e92b20cd001af23f924e532cd4f6761d2524af01e3045c2f67f98e925e9b4af1084190301752c954ff561391bc1

f5871e8a730225d5c99038b3fae42f7d4c3a68d5ac0b50561c81e5c6cccd214a6761d2524af01e3045c2f67f98e925e9b4af1084190301752c954ff561391bc1

738e66022f60e35237e76ac2c00227942fdebd21a332f912bb1d20e2cc9fdef9b4b5ddcee77bce56545ce0b28904c58dbb8eeadb22fe983a101239d91c7a4e7e

$CDNENCFINISH_ADV2
.ENDS NAND2_BB


.SUBCKT NAND3_BB IN1 IN2 IN3 OUT VSS  PARAMS: VDD=1 VTH=0.5

$CDNENCSTART_ADV2
17f62b1fb318c25603aeb85644ae98a5d179ef807807791f6459efacb9d7ffc37a831b146dc0f06bb1ef275619162e6d8f7ad0dc708bf15ae1a1d5bd0ae623b2
2840088971eb31bfe37176dd4fd079fe4ae55e92b20cd001af23f924e532cd4f6761d2524af01e3045c2f67f98e925e9b4af1084190301752c954ff561391bc1

f5871e8a730225d5c99038b3fae42f7d4c3a68d5ac0b50561c81e5c6cccd214a6761d2524af01e3045c2f67f98e925e9b4af1084190301752c954ff561391bc1

325d40bb8cce051d8e14a1dad937553e68059822f16a8428a54fa3f05a777aee6761d2524af01e3045c2f67f98e925e9b4af1084190301752c954ff561391bc1

55d499e4fe3fd0d65498716b6cc36725015a7979ed760c13a60c3c28f63cf9b2fb2b7315feaeccadb910adfc5bb5412c68bbe536aa86b1a292b0939a38dbf7c3
eb8ea0345258c6911d466da894f8a9e18b8a454e608bae06a80a04f493bff6d690b2e5f39efd10558b1e6c852cad490e6c4b28e42476bf245024cfa790f93476

9bf8f39ee56892c837f9c8a2ffd81fb2deea8657cbb8429a2a9fb1f613dcf76b8b6d0d893c36270ce8464d4a32d2629777ce35f0697f7ea469a184dfc8e70037

738e66022f60e35237e76ac2c00227949a5fd8b87905bb77f84e6ac2ed6bda736761d2524af01e3045c2f67f98e925e9b4af1084190301752c954ff561391bc1

$CDNENCFINISH_ADV2
.ENDS NAND3_BB



.SUBCKT AND3_BB IN1 IN2 IN3 OUT VSS PARAMS: VDD=1 VTH=0.5

$CDNENCSTART_ADV2
17f62b1fb318c25603aeb85644ae98a5d179ef807807791f6459efacb9d7ffc37a831b146dc0f06bb1ef275619162e6d8f7ad0dc708bf15ae1a1d5bd0ae623b2
738e66022f60e35237e76ac2c00227949a5fd8b87905bb77f84e6ac2ed6bda736761d2524af01e3045c2f67f98e925e9b4af1084190301752c954ff561391bc1
325d40bb8cce051d8e14a1dad937553e68059822f16a8428a54fa3f05a777aee6761d2524af01e3045c2f67f98e925e9b4af1084190301752c954ff561391bc1

f5871e8a730225d5c99038b3fae42f7d4c3a68d5ac0b50561c81e5c6cccd214a6761d2524af01e3045c2f67f98e925e9b4af1084190301752c954ff561391bc1

2840088971eb31bfe37176dd4fd079fe4ae55e92b20cd001af23f924e532cd4f6761d2524af01e3045c2f67f98e925e9b4af1084190301752c954ff561391bc1

4ae345d0d407d23d4f163eead15652cad57758a365f7cfc175eec66121dc09cc8932fad02e259b49ee13f43c7a36689e7dabdd2a3497e09c7b8874ef1a0a6ec9
d51c723c6096dd713133d5ef947432e10907566d91155198c5f6b15f29680d682af9c780c79b7cf5f657d107dfd13669bbc1947c1f70f80549e46e0468d796de

051b3707b29b91d91bc62fe36dca4919663680fe16d6ae3efe5fceebdde913af178c264018b22e525f34864d292aa526baca1ecfa3da37151f729749cdf8467f

653e35257db9434bf5e2381c66f49f1404979da8cac3ee6555395485abbca7c960e340c18622ef046775e07b7a112428cc3efa6c08cfebe86fe3ad8373b36a34

$CDNENCFINISH_ADV2
.ENDS AND3_BB

.SUBCKT OR2_BB IN1 IN2 OUT VSS  PARAMS: VDD=1 VTH=0.5

$CDNENCSTART_ADV2
17f62b1fb318c25603aeb85644ae98a5d179ef807807791f6459efacb9d7ffc37a831b146dc0f06bb1ef275619162e6d8f7ad0dc708bf15ae1a1d5bd0ae623b2
738e66022f60e35237e76ac2c00227949a5fd8b87905bb77f84e6ac2ed6bda736761d2524af01e3045c2f67f98e925e9b4af1084190301752c954ff561391bc1

f5871e8a730225d5c99038b3fae42f7d4c3a68d5ac0b50561c81e5c6cccd214a6761d2524af01e3045c2f67f98e925e9b4af1084190301752c954ff561391bc1

2840088971eb31bfe37176dd4fd079fe4ae55e92b20cd001af23f924e532cd4f6761d2524af01e3045c2f67f98e925e9b4af1084190301752c954ff561391bc1

1b5e3e5e1d41dc92cbbe4e894bd14168d57758a365f7cfc175eec66121dc09cc8932fad02e259b49ee13f43c7a36689e350e839f6fb129b70d7dc9004e5e390e
3f92541e2e8eca60e7e6e2ef3deb3276b4b5ddcee77bce56545ce0b28904c58d44361ab53cc2454cc1597565fc3616fbe18254dd569e78a2c84c789912a8f703

d62d9b333d523aa08f285f5e3e45a4a3512d9c4e4c662f10ef40d3e984fb8e30b4b5ddcee77bce56545ce0b28904c58dbb8eeadb22fe983a101239d91c7a4e7e

52ff02f86f82ecea48a3b3b0947d0aa48d24da60df9ddb676d791ff59fe9071fd349d953708c497b04060a75c837f9c2b33dd1c269c180476dcc4c8daca6784a

$CDNENCFINISH_ADV2
.ENDS OR2_BB

.SUBCKT NOR2_BB IN1 IN2 OUT VSS  PARAMS: VDD=1 VTH=0.5

$CDNENCSTART_ADV2
17f62b1fb318c25603aeb85644ae98a5d179ef807807791f6459efacb9d7ffc37a831b146dc0f06bb1ef275619162e6d8f7ad0dc708bf15ae1a1d5bd0ae623b2
f5871e8a730225d5c99038b3fae42f7d4c3a68d5ac0b50561c81e5c6cccd214a6761d2524af01e3045c2f67f98e925e9b4af1084190301752c954ff561391bc1

2840088971eb31bfe37176dd4fd079fe4ae55e92b20cd001af23f924e532cd4f6761d2524af01e3045c2f67f98e925e9b4af1084190301752c954ff561391bc1

738e66022f60e35237e76ac2c00227949a5fd8b87905bb77f84e6ac2ed6bda736761d2524af01e3045c2f67f98e925e9b4af1084190301752c954ff561391bc1

55d499e4fe3fd0d65498716b6cc36725015a7979ed760c13a60c3c28f63cf9b2b02f8c468fecc8c062394551cd5cf12568bbe536aa86b1a292b0939a38dbf7c3
8a0e447f1183c90c43552029e0a7a42adefd839737b513cdad7feb825a770f20fca73c233e20cb23df42bdf3bfa6f186b844c1d48d211fddff0fb426c0413755

044f54c803cfc9cd8125f095cf4e06b00e593d006555578c6df628fce12bda237207c3c83ae0a5262085c4cfcac0ce6b3a5c58114594981fbf85d273fe53ea13

9bf8f39ee56892c837f9c8a2ffd81fb2deea8657cbb8429a2a9fb1f613dcf76b8b6d0d893c36270ce8464d4a32d2629777ce35f0697f7ea469a184dfc8e70037

$CDNENCFINISH_ADV2
.ENDS NOR2_BB



.SUBCKT NOR3_BB IN1 IN2 IN3 OUT VSS  PARAMS: VDD=1 VTH=0.5

$CDNENCSTART_ADV2
17f62b1fb318c25603aeb85644ae98a5d179ef807807791f6459efacb9d7ffc37a831b146dc0f06bb1ef275619162e6d8f7ad0dc708bf15ae1a1d5bd0ae623b2
2840088971eb31bfe37176dd4fd079fe4ae55e92b20cd001af23f924e532cd4f6761d2524af01e3045c2f67f98e925e9b4af1084190301752c954ff561391bc1

f5871e8a730225d5c99038b3fae42f7d4c3a68d5ac0b50561c81e5c6cccd214a6761d2524af01e3045c2f67f98e925e9b4af1084190301752c954ff561391bc1

325d40bb8cce051d8e14a1dad937553e68059822f16a8428a54fa3f05a777aee6761d2524af01e3045c2f67f98e925e9b4af1084190301752c954ff561391bc1

738e66022f60e35237e76ac2c00227949a5fd8b87905bb77f84e6ac2ed6bda736761d2524af01e3045c2f67f98e925e9b4af1084190301752c954ff561391bc1

413227fe9f43c77f06bb5d0da7e76fc4eb0d201d81d101bb33c99554d110b8466cbc8f955aed704447c3b65aa01cf1f8764ff9ff726ffdb024543a6bcf8b5b38
294e7d06525930f0cc5103c1639d898dc5a5d66e98884befa929eda1167cc7ba0cbecf23aa9f7c7baeef177ded5ecc1880816b4e07309a0cf1d4b16ec5668aa7

044f54c803cfc9cd8125f095cf4e06b00e593d006555578c6df628fce12bda237207c3c83ae0a5262085c4cfcac0ce6b3a5c58114594981fbf85d273fe53ea13

9bf8f39ee56892c837f9c8a2ffd81fb2deea8657cbb8429a2a9fb1f613dcf76b8b6d0d893c36270ce8464d4a32d2629777ce35f0697f7ea469a184dfc8e70037

$CDNENCFINISH_ADV2
.ENDS NOR3_BB



.SUBCKT NOR4_BB IN1 IN2 IN3 IN4 OUT VSS  PARAMS: VDD=1 VTH=0.5

$CDNENCSTART_ADV2
17f62b1fb318c25603aeb85644ae98a5d179ef807807791f6459efacb9d7ffc37a831b146dc0f06bb1ef275619162e6d8f7ad0dc708bf15ae1a1d5bd0ae623b2
2840088971eb31bfe37176dd4fd079fe4ae55e92b20cd001af23f924e532cd4f6761d2524af01e3045c2f67f98e925e9b4af1084190301752c954ff561391bc1

f5871e8a730225d5c99038b3fae42f7d4c3a68d5ac0b50561c81e5c6cccd214a6761d2524af01e3045c2f67f98e925e9b4af1084190301752c954ff561391bc1

325d40bb8cce051d8e14a1dad937553e68059822f16a8428a54fa3f05a777aee6761d2524af01e3045c2f67f98e925e9b4af1084190301752c954ff561391bc1

af013dc5279887241abf136d0ab947d34dca6c05c586004d01540a6978c9317b6761d2524af01e3045c2f67f98e925e9b4af1084190301752c954ff561391bc1

738e66022f60e35237e76ac2c00227942fdebd21a332f912bb1d20e2cc9fdef9b4b5ddcee77bce56545ce0b28904c58dbb8eeadb22fe983a101239d91c7a4e7e

413227fe9f43c77f06bb5d0da7e76fc4eb0d201d81d101bb33c99554d110b8466cbc8f955aed704447c3b65aa01cf1f8764ff9ff726ffdb024543a6bcf8b5b38
68a3e6a0e894a4095f4ccc5f63557eaaa50cfb0c2b982b4b0103e880b5f257558211cace0417338a668417730f682ee752b2e51707b381f57e3839c7dd73b181

044f54c803cfc9cd8125f095cf4e06b00e593d006555578c6df628fce12bda237207c3c83ae0a5262085c4cfcac0ce6b3a5c58114594981fbf85d273fe53ea13

9bf8f39ee56892c837f9c8a2ffd81fb2deea8657cbb8429a2a9fb1f613dcf76b8b6d0d893c36270ce8464d4a32d2629777ce35f0697f7ea469a184dfc8e70037

$CDNENCFINISH_ADV2
.ENDS NOR4_BB

.SUBCKT OR3_BB IN1 IN2 IN3 OUT VSS  PARAMS: VDD=1 VTH=0.5

$CDNENCSTART_ADV2
17f62b1fb318c25603aeb85644ae98a5d179ef807807791f6459efacb9d7ffc37a831b146dc0f06bb1ef275619162e6d8f7ad0dc708bf15ae1a1d5bd0ae623b2
2840088971eb31bfe37176dd4fd079fe4ae55e92b20cd001af23f924e532cd4f6761d2524af01e3045c2f67f98e925e9b4af1084190301752c954ff561391bc1

f5871e8a730225d5c99038b3fae42f7d4c3a68d5ac0b50561c81e5c6cccd214a6761d2524af01e3045c2f67f98e925e9b4af1084190301752c954ff561391bc1

325d40bb8cce051d8e14a1dad937553e68059822f16a8428a54fa3f05a777aee6761d2524af01e3045c2f67f98e925e9b4af1084190301752c954ff561391bc1

1b5e3e5e1d41dc92cbbe4e894bd14168d57758a365f7cfc175eec66121dc09cc8932fad02e259b49ee13f43c7a36689e350e839f6fb129b70d7dc9004e5e390e
d4578d66e0f8831e1dd409b45f2bd2bfc848e7ef8008ad0d6779d5109f1b99174bc7924030e051fec31ac95672a173396c66cc24457663d0abbb4daa8118c813

d62d9b333d523aa08f285f5e3e45a4a39cfee170ef63e6ee0f4b7b0671204be2d349d953708c497b04060a75c837f9c2b33dd1c269c180476dcc4c8daca6784a

87aeceb6d37bda8a4164503ec346140304979da8cac3ee6555395485abbca7c960e340c18622ef046775e07b7a112428cc3efa6c08cfebe86fe3ad8373b36a34

738e66022f60e35237e76ac2c00227949a5fd8b87905bb77f84e6ac2ed6bda736761d2524af01e3045c2f67f98e925e9b4af1084190301752c954ff561391bc1

$CDNENCFINISH_ADV2
.ENDS OR3_BB




.SUBCKT NAND4_BB IN1 IN2 IN3 IN4 OUT VSS  PARAMS: VDD=1 VTH=0.5

$CDNENCSTART_ADV2
17f62b1fb318c25603aeb85644ae98a5d179ef807807791f6459efacb9d7ffc37a831b146dc0f06bb1ef275619162e6d8f7ad0dc708bf15ae1a1d5bd0ae623b2
2840088971eb31bfe37176dd4fd079fe4ae55e92b20cd001af23f924e532cd4f6761d2524af01e3045c2f67f98e925e9b4af1084190301752c954ff561391bc1

f5871e8a730225d5c99038b3fae42f7d4c3a68d5ac0b50561c81e5c6cccd214a6761d2524af01e3045c2f67f98e925e9b4af1084190301752c954ff561391bc1

325d40bb8cce051d8e14a1dad937553e68059822f16a8428a54fa3f05a777aee6761d2524af01e3045c2f67f98e925e9b4af1084190301752c954ff561391bc1

af013dc5279887241abf136d0ab947d34dca6c05c586004d01540a6978c9317b6761d2524af01e3045c2f67f98e925e9b4af1084190301752c954ff561391bc1

55d499e4fe3fd0d65498716b6cc3672504363807e188855ed37d159248c719b754019bc1a4602fe917c58ec5845e9ac1d3ac0a234f1575844cafc1dea5fbecf1
7d9943793cacb77677fd9da04e76f6c260e340c18622ef046775e07b7a112428dc8908598d3fdae4470eaa10976e69083b630db99eeed6d2e42bb783bd8df518

328b748e93e58111d30e248cfe685b419c53ddf20f2aa0be18a7cbe2cd72fac651292a8f6b370f6f1c5c295da7a35b99d1a61dd0f8eae43fcdb17b3972345b13

9bf8f39ee56892c837f9c8a2ffd81fb2deea8657cbb8429a2a9fb1f613dcf76b8b6d0d893c36270ce8464d4a32d2629777ce35f0697f7ea469a184dfc8e70037

738e66022f60e35237e76ac2c00227949a5fd8b87905bb77f84e6ac2ed6bda736761d2524af01e3045c2f67f98e925e9b4af1084190301752c954ff561391bc1

$CDNENCFINISH_ADV2
.ENDS NAND4_BB


.SUBCKT INV_BB IN OUT VSS    PARAMS: VDD=1 VTH=0.5

$CDNENCSTART_ADV2
17f62b1fb318c25603aeb85644ae98a5d179ef807807791f6459efacb9d7ffc37a831b146dc0f06bb1ef275619162e6d8f7ad0dc708bf15ae1a1d5bd0ae623b2
70bed6a6f68c69471216be739fb5499510d9d19e4f39e3ce03abde3a505a83c54bc7924030e051fec31ac95672a173396c66cc24457663d0abbb4daa8118c813
6a953768738e09110b005ab1e59f52eb541c3c39bae727c19b2e99733ac4ce10056e91a65f8ba0cb5a80f1f6b6e903a0c1fda36ece20dd796b40a103fda7885d
dd548b3f6524faac1911ad69422b53210907566d91155198c5f6b15f29680d682af9c780c79b7cf5f657d107dfd13669bbc1947c1f70f80549e46e0468d796de
0391964abcfb53d002530ea1824a7ac458f9a9c63039f485a5d253eece1033b9deea8657cbb8429a2a9fb1f613dcf76b23d0f28dff3616324442ab3b1c9de501
c31abc12e8611c93475d227a76d4f01b5b813c62c82fcebe7d7b98ccd481ca5a1f2812eefa8e3dc0bc0ef7b7fe87f9b4701b424608629281e2ec278709ffe3b7
$CDNENCFINISH_ADV2
.ENDS INV_BB

.SUBCKT BUF_BB IN OUT VSS    PARAMS: VDD=1 VTH=0.5

$CDNENCSTART_ADV2
17f62b1fb318c25603aeb85644ae98a5d179ef807807791f6459efacb9d7ffc37a831b146dc0f06bb1ef275619162e6d8f7ad0dc708bf15ae1a1d5bd0ae623b2
70bed6a6f68c69471216be739fb5499510d9d19e4f39e3ce03abde3a505a83c54bc7924030e051fec31ac95672a173396c66cc24457663d0abbb4daa8118c813
6a953768738e09110b005ab1e59f52eb541c3c39bae727c19b2e99733ac4ce10056e91a65f8ba0cb5a80f1f6b6e903a0e8a52c89221e3b8f5db584a67c6628f3
4d571914565c2d2bb792f3135c93df7a0907566d91155198c5f6b15f29680d682af9c780c79b7cf5f657d107dfd13669bbc1947c1f70f80549e46e0468d796de
0391964abcfb53d002530ea1824a7ac458f9a9c63039f485a5d253eece1033b9deea8657cbb8429a2a9fb1f613dcf76b23d0f28dff3616324442ab3b1c9de501
c31abc12e8611c93475d227a76d4f01b5b813c62c82fcebe7d7b98ccd481ca5a1f2812eefa8e3dc0bc0ef7b7fe87f9b4701b424608629281e2ec278709ffe3b7
$CDNENCFINISH_ADV2
.ENDS BUF_BB

.model D_def D 
$CDNENCSTART_ADV2
17f62b1fb318c25603aeb85644ae98a5d179ef807807791f6459efacb9d7ffc37a831b146dc0f06bb1ef275619162e6d8f7ad0dc708bf15ae1a1d5bd0ae623b2
9b3db2efe608f180064b1813ed8c3b28ee3307c887862919a281e8c9ff0870882531cc8b1c8b648559a082dcc35e7e6424e80b1273a3a1a865e0dc7cb19f2bbb
$CDNENCFINISH_ADV2
.model D_DL D 
$CDNENCSTART_ADV2
17f62b1fb318c25603aeb85644ae98a5d179ef807807791f6459efacb9d7ffc37a831b146dc0f06bb1ef275619162e6d8f7ad0dc708bf15ae1a1d5bd0ae623b2
5cd96d3d2300ae2151a537b2be9ecb290907566d91155198c5f6b15f29680d682af9c780c79b7cf5f657d107dfd13669bbc1947c1f70f80549e46e0468d796de

$CDNENCFINISH_ADV2

.SUBCKT SRFFSDOMIN_BB Q QB R S VSS  PARAMS: VDD=1 VTH=0.5

$CDNENCSTART_ADV2
17f62b1fb318c25603aeb85644ae98a5d179ef807807791f6459efacb9d7ffc37a831b146dc0f06bb1ef275619162e6d8f7ad0dc708bf15ae1a1d5bd0ae623b2
67a7dea8b77473b6b093c3216482d0f612f9c0ace0be54dc772d5d4567f2394490954facde0d09661870680196e8a5b0694cd55768b7c24c5e7dabef4c7bdd44
0d3be3f806a107f0e17cb6a94d9a352a4bc7924030e051fec31ac95672a17339be1834333cf08f30216aaf3921aaecdafcfad5a2eeb950b420cd0aea57fb4aca
655926a18809c0ce2326f25b9bcf8c4208408db624aaf21e2fd7190f126f17d01f2812eefa8e3dc0bc0ef7b7fe87f9b4701b424608629281e2ec278709ffe3b7
61a39a3585cf1db473a8c52e8d049edfabd65bf2721af33806cc6ab4e39bf31e1f2812eefa8e3dc0bc0ef7b7fe87f9b4701b424608629281e2ec278709ffe3b7
3cf1976e425fd5fcb9ec0b49c657e8b59b2005356d732d893bb1a48f4674a5b936b48bdd4455c448672f67b4467ad3623af0a1b7daa78bdd97ea33903be3aab5
ee076795fbf1a5928c9753ef726753e89965439ff7163aef80ab08907d198689deea8657cbb8429a2a9fb1f613dcf76b23d0f28dff3616324442ab3b1c9de501
e348cd156a16074c94a2838f0271d9006033b5bd57416c327a6b7e6df5e414a61b75e949ab41fb6f54942f0e499f365cdce9e0fb72e62f13f13b876e7d64b00e
8088381fa65093e0c6beaf6fdadcca58c9e5bf9e1bccf72f12909821b1e19986d349d953708c497b04060a75c837f9c2b33dd1c269c180476dcc4c8daca6784a
849d95d4eccbc2b1115cff078bb6100aead0a959a488c6b6656f80bdda1b6400d349d953708c497b04060a75c837f9c2b33dd1c269c180476dcc4c8daca6784a
4c8be5fb44188a513219bd3975600fc4a65c7fc1b8ce9d70bb77c2702218c9e7f11b99441f38fdf371d9f9ef29087d6dd8129ff99b279f305ea662e0a208c51d
78ccfc332df5ee56af623f88e0a5d530a09fd50e3ea93dd49777d66b4ef34b1862696588e6de940aefa8b6f9471b9a32e6b4c710130fad675f334bc01e5b705a
63a14dfeb252d24a5bdcda1056c27fc26b62da99e6ec301ca6b14189ab41cf966761d2524af01e3045c2f67f98e925e9b4af1084190301752c954ff561391bc1
3de2c205cdc5ff6429fde3ac70519b263f097134d87d13624d66584a2edf630e1b75e949ab41fb6f54942f0e499f365cdce9e0fb72e62f13f13b876e7d64b00e
cf45d3cd7bf59a876a33e04d5436873891d41d8a1c750a105e19bf6f72f581a636b48bdd4455c448672f67b4467ad3623af0a1b7daa78bdd97ea33903be3aab5
6512981031617301a4bb9bb78f6227536a530edbc453f4e3631e9d852c04bacb5a836358706ee7764dd0d15b6d620ed200033b2fadb616c0566dc9f00e3a8ab8
4e99faca47b089f92203b148d668179579628bd45b9e81d893a79ad6ae0641b3a503e713d1605d07a0425a0a60797a2f9435a51f3eef0c4ce86b53222e656632
aede58b062926d1e7af4af85762d72ec99243f4a283896af7834018442525051518b586823da57ccd89916acd78f576fbdbf3ac2a8282d8be7789dc4c4f9e8fc
$CDNENCFINISH_ADV2
.ENDS SRFFSDOMIN_BB


.SUBCKT SRFFRDOMIN_BB Q QB R S VSS  PARAMS: VDD=1 VTH=0.5

$CDNENCSTART_ADV2
17f62b1fb318c25603aeb85644ae98a5d179ef807807791f6459efacb9d7ffc37a831b146dc0f06bb1ef275619162e6d8f7ad0dc708bf15ae1a1d5bd0ae623b2
67a7dea8b77473b6b093c3216482d0f612f9c0ace0be54dc772d5d4567f239443acfc4f9aa8932b2552efd2fa855114f4e25f78fb2ecccb0e6acc79d2916435e
369926d040741e2851955f41c4128e114bc7924030e051fec31ac95672a17339be1834333cf08f30216aaf3921aaecdafcfad5a2eeb950b420cd0aea57fb4aca
655926a18809c0ce2326f25b9bcf8c4208408db624aaf21e2fd7190f126f17d01f2812eefa8e3dc0bc0ef7b7fe87f9b4701b424608629281e2ec278709ffe3b7
61a39a3585cf1db473a8c52e8d049edfabd65bf2721af33806cc6ab4e39bf31e1f2812eefa8e3dc0bc0ef7b7fe87f9b4701b424608629281e2ec278709ffe3b7
3cf1976e425fd5fcb9ec0b49c657e8b59b2005356d732d893bb1a48f4674a5b936b48bdd4455c448672f67b4467ad3623af0a1b7daa78bdd97ea33903be3aab5
ee076795fbf1a5928c9753ef726753e89965439ff7163aef80ab08907d198689deea8657cbb8429a2a9fb1f613dcf76b23d0f28dff3616324442ab3b1c9de501
e348cd156a16074c94a2838f0271d9006033b5bd57416c327a6b7e6df5e414a61b75e949ab41fb6f54942f0e499f365cdce9e0fb72e62f13f13b876e7d64b00e
8088381fa65093e0c6beaf6fdadcca58c9e5bf9e1bccf72f12909821b1e19986d349d953708c497b04060a75c837f9c2b33dd1c269c180476dcc4c8daca6784a
849d95d4eccbc2b1115cff078bb6100aead0a959a488c6b6656f80bdda1b6400d349d953708c497b04060a75c837f9c2b33dd1c269c180476dcc4c8daca6784a
4c8be5fb44188a513219bd3975600fc4a65c7fc1b8ce9d70bb77c2702218c9e7f11b99441f38fdf371d9f9ef29087d6dd8129ff99b279f305ea662e0a208c51d
78ccfc332df5ee56af623f88e0a5d530a09fd50e3ea93dd49777d66b4ef34b1862696588e6de940aefa8b6f9471b9a32e6b4c710130fad675f334bc01e5b705a
63a14dfeb252d24a5bdcda1056c27fc26b62da99e6ec301ca6b14189ab41cf966761d2524af01e3045c2f67f98e925e9b4af1084190301752c954ff561391bc1
3de2c205cdc5ff6429fde3ac70519b263f097134d87d13624d66584a2edf630e1b75e949ab41fb6f54942f0e499f365cdce9e0fb72e62f13f13b876e7d64b00e
cf45d3cd7bf59a876a33e04d5436873891d41d8a1c750a105e19bf6f72f581a636b48bdd4455c448672f67b4467ad3623af0a1b7daa78bdd97ea33903be3aab5
6512981031617301a4bb9bb78f6227536a530edbc453f4e3631e9d852c04bacb5a836358706ee7764dd0d15b6d620ed200033b2fadb616c0566dc9f00e3a8ab8
4e99faca47b089f92203b148d668179579628bd45b9e81d893a79ad6ae0641b3a503e713d1605d07a0425a0a60797a2f9435a51f3eef0c4ce86b53222e656632
aede58b062926d1e7af4af85762d72ec99243f4a283896af7834018442525051518b586823da57ccd89916acd78f576fbdbf3ac2a8282d8be7789dc4c4f9e8fc
$CDNENCFINISH_ADV2
.ENDS SRFFRDOMIN_BB



.SUBCKT DELAY_BB IN OUT VSS  PARAMS: DELAY=1n VDD=1 VTH=0.5

$CDNENCSTART_ADV2
17f62b1fb318c25603aeb85644ae98a5d179ef807807791f6459efacb9d7ffc37a831b146dc0f06bb1ef275619162e6d8f7ad0dc708bf15ae1a1d5bd0ae623b2
70bed6a6f68c69471216be739fb5499510d9d19e4f39e3ce03abde3a505a83c54bc7924030e051fec31ac95672a173396c66cc24457663d0abbb4daa8118c813
6a953768738e09110b005ab1e59f52eb541c3c39bae727c19b2e99733ac4ce10056e91a65f8ba0cb5a80f1f6b6e903a05f6ac20acb90d3e38ac9137f824d83ce
853d54f4cb92ad656b3ca551cf96336ab2326e047fad68d1b7b908b530e2f6ceec523f853c79c33d0063c1a730f306b84727a5fc3d5f652aac2eaf3d5b8616b0
543395c9cfffb0d08ae524669cf9d59f05f0569c9945ddf3994095f5b51b1f81e2ca597b5b8330a13d0712fbecb39f4b52005b5e48644d839e78096665cf3913
987d1de73815d4fad1d7dfce01088c1226b31d47617ed42a87a7426859c95519716cb222fe06d25b37055779f2b4ffd6d4e2e1350f98aa65394edfc9844ebd1c
f3948a86526f387f197b7acae3b0766bbdfdb11209dd4226e3f9305aa9e4f7f84dc3c1c2ea0d357738c189faed23382952005b5e48644d839e78096665cf3913
987d1de73815d4fad1d7dfce01088c1226b31d47617ed42a87a7426859c95519716cb222fe06d25b37055779f2b4ffd6d4e2e1350f98aa65394edfc9844ebd1c
a1251befcad221578d3338a840a781618d000ddfd25e82bcf3c5418f284decf2e83a8dae924b29b364004cb22ed534298439d988c7e589e5e91f33241c06a031
26b31d47617ed42a87a7426859c95519716cb222fe06d25b37055779f2b4ffd6bf0af1afef0aabb29db0b29e03ce9235436c6c663b45b4139a434298bc49cc5b
10539018833ec7564632548cb5b399a3ed79d981be6fc0eec5d5b9501a35d0858c98ee8279d92838038a194ddff37b75725c324a1f418d6d7e288d80e2eccc8c
d09fc5dee8f60fd0b1792a46dd73c0b0054a46ef4a13ce37a5572303d54778fcee07688b6fefcd078d0efe4ec39bbb59d1a61dd0f8eae43fcdb17b3972345b13
c58264cc1273e7f01b4edbf38ba8912b8aa9b364f218f37bbbf570a7b93b026bd66da456c6a6557980cf7b510f8ed109725c324a1f418d6d7e288d80e2eccc8c
370a127b2ffc7981f60416d497f90bedc86e7730be04d8e75d7c523a551f78b2ee07688b6fefcd078d0efe4ec39bbb59d1a61dd0f8eae43fcdb17b3972345b13
ba62cb5742b33766dec9812b32e28e3fddd87d9b1e1e0d4f83be7a70eeaeccc258865e86923fa8863fab0d278023cfc1b1c39e7c845b38de52820bbdf5751c5a
f3e3539645b1f28bcab63da5da6631b71b75e949ab41fb6f54942f0e499f365c1ae74e4ddceb74a0e92cd3c7995bc31546b18059bc5ba370b02e18e73f3071be
35e0f29011966f5ce8d5b353e1472a8b6761d2524af01e3045c2f67f98e925e98340423999e2f1397a07315892a0c991552d70cde54fa63036486d556f656434
92aecdfcbbbb6cdcc812179ba95d650ea963c3c3ed6324a11ccac3433487373a36b48bdd4455c448672f67b4467ad3623af0a1b7daa78bdd97ea33903be3aab5
37463b41151ffd3c77177eeaff47d6e2808d5b84369eb5b3e50248052b33e17136b48bdd4455c448672f67b4467ad3623af0a1b7daa78bdd97ea33903be3aab5
5c2e6331de141a190d30d461e7af0f38401d728f1054cc937126e29d11c16ff2afe09b052fc61c1e7cb094219fd939cf42853786103dadd0621243ff855a0666
b311326d3a1cd55a339425c34d9f9197401d728f1054cc937126e29d11c16ff2afe09b052fc61c1e7cb094219fd939cf42853786103dadd0621243ff855a0666
c31abc12e8611c93475d227a76d4f01ba038adcd77d08b893a394eba9d7c545c1f2812eefa8e3dc0bc0ef7b7fe87f9b4701b424608629281e2ec278709ffe3b7
0391964abcfb53d002530ea1824a7ac4296e41f591f07a8d366d4572dd2b0a9c36b48bdd4455c448672f67b4467ad3623af0a1b7daa78bdd97ea33903be3aab5
$CDNENCFINISH_ADV2
.ENDS DELAY_BB

