Version 4.1
SHEET 1 1480 920
WIRE 48 320 -96 320
WIRE 48 336 48 320
WIRE -96 400 -96 320
WIRE 368 416 288 416
WIRE 480 416 448 416
WIRE 48 432 48 416
WIRE 80 432 48 432
WIRE 48 448 48 432
WIRE 1408 480 1248 480
WIRE 1248 528 1248 480
WIRE 1408 528 1408 480
WIRE -96 544 -96 480
WIRE 0 544 -96 544
WIRE 48 544 48 528
WIRE 48 544 0 544
WIRE 288 544 288 416
WIRE 288 544 208 544
WIRE 352 544 288 544
WIRE 416 560 400 560
WIRE 480 560 480 416
WIRE 480 560 416 560
WIRE 528 560 480 560
WIRE 544 560 528 560
WIRE 640 560 624 560
WIRE 352 576 320 576
WIRE 528 592 528 560
WIRE 368 608 368 592
WIRE 1072 608 1072 592
WIRE 1104 608 1072 608
WIRE 1200 608 1184 608
WIRE 0 624 0 544
WIRE 208 640 208 544
WIRE 320 688 320 576
WIRE 320 688 304 688
WIRE 480 688 480 560
WIRE 480 688 400 688
WIRE 1248 688 1248 624
WIRE 304 704 304 688
WIRE 1248 736 1248 688
WIRE 208 800 208 704
WIRE 304 800 304 784
WIRE 304 800 208 800
FLAG 48 320 12v
FLAG 80 432 6v
FLAG 368 608 0
FLAG 640 560 out
FLAG 0 624 0
FLAG 368 528 12v
FLAG 208 800 6v
FLAG 1248 816 0
FLAG 1408 608 0
FLAG 1072 592 out
FLAG 1248 688 mosfet_out
FLAG 528 656 0
DATAFLAG 1248 704 ""
DATAFLAG 1248 704 ""
DATAFLAG 1248 736 ""
SYMBOL voltage -96 384 R0
WINDOW 123 0 0 Left 0
WINDOW 39 0 0 Left 0
SYMATTR InstName V1
SYMATTR Value 12
SYMBOL res 32 320 R0
SYMATTR InstName R4
SYMATTR Value 560k
SYMBOL res 32 432 R0
SYMATTR InstName R5
SYMATTR Value 560k
SYMBOL res 320 800 R180
WINDOW 0 36 76 Left 2
WINDOW 3 36 40 Left 2
SYMATTR InstName R6
SYMATTR Value 33k
SYMBOL res 416 672 R90
WINDOW 0 0 56 VBottom 2
WINDOW 3 32 56 VTop 2
SYMATTR InstName R7
SYMATTR Value 33k
SYMBOL cap 192 640 R0
SYMATTR InstName C2
SYMATTR Value 1µ
SYMBOL res 464 400 R90
WINDOW 0 0 56 VBottom 2
WINDOW 3 32 56 VTop 2
SYMATTR InstName R8
SYMATTR Value 340
SYMBOL OpAmps\\ADA4807 384 560 R0
SYMATTR InstName U1
SYMBOL nmos 1200 528 R0
SYMATTR InstName M1
SYMATTR Value 2N7002
SYMBOL voltage 1408 512 R0
WINDOW 123 0 0 Left 0
WINDOW 39 0 0 Left 0
SYMATTR InstName V2
SYMATTR Value 50
SYMBOL res 1232 720 R0
SYMATTR InstName R1
SYMATTR Value 10k
SYMBOL res 1200 592 R90
WINDOW 0 0 56 VBottom 2
WINDOW 3 32 56 VTop 2
SYMATTR InstName R2
SYMATTR Value 50
SYMBOL res 640 544 R90
WINDOW 0 0 56 VBottom 2
WINDOW 3 32 56 VTop 2
SYMATTR InstName R3
SYMATTR Value 10k
SYMBOL cap 512 592 R0
SYMATTR InstName C1
SYMATTR Value 15.9n
TEXT -128 552 Left 2 !.tran 0 1 0 0.0001
