Version 4.1
SHEET 1 880 788
WIRE -928 256 -992 256
WIRE -752 256 -928 256
WIRE -640 256 -752 256
WIRE -336 256 -640 256
WIRE -224 256 -336 256
WIRE 48 256 -144 256
WIRE 96 256 48 256
WIRE 224 256 160 256
WIRE 288 256 224 256
WIRE 368 256 288 256
WIRE 432 256 368 256
WIRE 544 256 432 256
WIRE 656 256 544 256
WIRE 48 272 48 256
WIRE 48 272 -48 272
WIRE -752 288 -752 256
WIRE 48 288 48 272
WIRE 224 288 224 256
WIRE 288 288 288 256
WIRE 368 288 368 256
WIRE 432 288 432 256
WIRE 544 288 544 256
WIRE -336 304 -336 256
WIRE -928 336 -928 256
WIRE -496 368 -576 368
WIRE 0 368 -176 368
WIRE -752 416 -752 352
WIRE 48 416 48 384
WIRE 224 416 224 352
WIRE 288 416 288 352
WIRE 368 416 368 352
WIRE 432 416 432 352
WIRE -1360 432 -1360 384
WIRE -1280 432 -1280 384
WIRE -928 432 -928 400
WIRE -640 448 -640 256
WIRE -496 448 -640 448
WIRE -48 448 -48 272
WIRE -48 448 -176 448
WIRE 656 448 656 256
WIRE 544 480 544 368
WIRE 544 480 -128 480
WIRE 544 512 544 480
WIRE -1360 544 -1360 512
WIRE -1280 544 -1280 512
WIRE -496 544 -624 544
WIRE -128 544 -128 480
WIRE -128 544 -176 544
WIRE -336 624 -336 608
WIRE 544 624 544 592
WIRE 544 624 -336 624
WIRE 656 624 656 528
WIRE 656 624 544 624
WIRE -336 640 -336 624
WIRE -624 672 -624 624
WIRE -624 768 -624 736
FLAG -336 640 0
FLAG 48 416 0
FLAG 288 416 0
FLAG -624 768 0
FLAG -576 432 0
FLAG 656 256 48v
FLAG 368 416 0
FLAG 432 416 0
FLAG 224 416 0
FLAG -928 432 0
FLAG -752 416 0
FLAG -992 256 12V1
FLAG -1360 384 12V1
FLAG -1360 544 0
FLAG -1280 384 12V2
FLAG -1280 544 0
SYMBOL PowerProducts\\LTC3873 -336 448 R0
SYMATTR InstName U1
SYMBOL nmos 0 288 R0
SYMATTR InstName M1
SYMATTR Value IRFP4668
SYMBOL ind -128 240 R90
WINDOW 0 5 56 VBottom 2
WINDOW 3 32 56 VTop 2
SYMATTR InstName L1
SYMATTR Value 15µ
SYMBOL diode 96 272 R270
WINDOW 0 32 32 VTop 2
WINDOW 3 0 32 VBottom 2
SYMATTR InstName D1
SYMATTR Value RB055LAM-60
SYMBOL cap 272 288 R0
SYMATTR InstName C1
SYMATTR Value 220µ
SYMBOL res 528 272 R0
SYMATTR InstName R1
SYMATTR Value 390000
SYMBOL res 528 496 R0
SYMATTR InstName R2
SYMATTR Value 10000
SYMBOL res -640 528 R0
SYMATTR InstName R3
SYMATTR Value 7.5k
SYMBOL cap -640 672 R0
SYMATTR InstName C2
SYMATTR Value 2.2n
SYMBOL cap -592 368 R0
SYMATTR InstName C3
SYMATTR Value 0.1µ
SYMBOL res 640 432 R0
SYMATTR InstName R4
SYMATTR Value 24
SYMBOL cap 352 288 R0
SYMATTR InstName C4
SYMATTR Value 220µ
SYMBOL cap 416 288 R0
SYMATTR InstName C5
SYMATTR Value 40µ
SYMBOL cap 208 288 R0
SYMATTR InstName C6
SYMATTR Value 40µ
SYMBOL TVSdiode -944 336 R0
SYMATTR InstName D2
SYMATTR Value SMBJ24CA
SYMBOL cap -768 288 R0
SYMATTR InstName C7
SYMATTR Value 40µ
SYMBOL voltage -1360 416 R0
WINDOW 123 0 0 Left 0
WINDOW 39 0 0 Left 0
SYMATTR InstName V1
SYMATTR Value 12
SYMBOL voltage -1280 416 R0
WINDOW 123 0 0 Left 0
WINDOW 39 0 0 Left 0
SYMATTR InstName V2
SYMATTR Value PWL(0 0 1u 12)
