Version 4.1
SHEET 1 1144 712
WIRE -96 -16 -272 -16
WIRE 208 -16 -96 -16
WIRE 320 -16 208 -16
WIRE 592 -16 400 -16
WIRE 640 -16 592 -16
WIRE 752 -16 704 -16
WIRE 832 -16 752 -16
WIRE 592 0 592 -16
WIRE 592 0 496 0
WIRE 592 16 592 0
WIRE 752 16 752 -16
WIRE 832 16 832 -16
WIRE 208 32 208 -16
WIRE 544 96 368 96
WIRE -768 128 -768 80
WIRE 592 144 592 112
WIRE 752 144 752 80
WIRE -96 176 -96 -16
WIRE 48 176 -96 176
WIRE 496 176 496 0
WIRE 496 176 368 176
WIRE 832 208 832 96
WIRE 832 208 416 208
WIRE -768 240 -768 208
WIRE 832 240 832 208
WIRE 416 272 416 208
WIRE 416 272 368 272
WIRE 208 352 208 336
WIRE 832 352 832 320
WIRE 832 352 208 352
WIRE 208 368 208 352
FLAG -768 80 24V
FLAG -768 240 0
FLAG -272 -16 24V
FLAG 208 368 0
FLAG 592 144 0
FLAG 752 144 0
SYMBOL PowerProducts\\LTC3873 208 176 R0
SYMATTR InstName U1
SYMBOL nmos 544 16 R0
SYMATTR InstName M1
SYMATTR Value IXFB300N10P
SYMBOL voltage -768 112 R0
SYMATTR InstName V1
SYMBOL ind 416 -32 R90
WINDOW 0 5 56 VBottom 2
WINDOW 3 32 56 VTop 2
SYMATTR InstName L1
SYMBOL diode 640 0 R270
WINDOW 0 32 32 VTop 2
WINDOW 3 0 32 VBottom 2
SYMATTR InstName D1
SYMATTR Value RB055LAM-60
SYMATTR Description Diode
SYMATTR Type diode
SYMBOL cap 736 16 R0
SYMATTR InstName C1
SYMBOL res 816 0 R0
SYMATTR InstName R2
SYMATTR Value 390000
SYMBOL res 816 224 R0
SYMATTR InstName R1
SYMATTR Value 10000
