Version 4.1
SHEET 1 1232 2140
WIRE -272 16 -272 -64
WIRE -544 32 -544 -192
WIRE -304 32 -544 32
WIRE 304 48 304 -192
WIRE 400 48 304 48
WIRE -544 64 -544 32
WIRE -304 64 -400 64
WIRE 304 64 304 48
WIRE 400 80 400 48
WIRE 624 80 400 80
WIRE 864 80 816 80
WIRE 16 112 -128 112
WIRE 624 112 400 112
WIRE 864 112 864 80
WIRE 864 112 816 112
WIRE 624 144 560 144
WIRE 864 144 816 144
WIRE -400 160 -400 144
WIRE -304 160 -400 160
WIRE 304 160 304 144
WIRE 400 160 400 112
WIRE 400 160 304 160
WIRE 864 176 864 144
WIRE -544 192 -544 144
WIRE -304 192 -544 192
WIRE -192 224 -192 176
WIRE -272 256 -272 208
WIRE -544 336 -544 192
WIRE 304 336 304 160
WIRE 848 352 720 352
WIRE 848 384 848 352
WIRE 768 464 768 400
WIRE 720 480 720 352
WIRE 736 480 720 480
WIRE 848 496 848 464
WIRE 848 496 800 496
WIRE 912 496 848 496
WIRE 560 512 560 144
WIRE 736 512 560 512
WIRE 560 576 560 512
WIRE 768 576 768 528
WIRE -720 688 -720 656
WIRE -640 688 -640 656
WIRE -560 688 -560 672
WIRE -480 688 -480 672
WIRE 560 688 560 656
WIRE -720 784 -720 768
WIRE -640 784 -640 768
WIRE -560 784 -560 768
WIRE -480 784 -480 768
FLAG -640 656 5V
FLAG -720 656 -5V
FLAG -720 784 0
FLAG -640 784 0
FLAG -560 672 20V
FLAG -560 784 0
FLAG -192 224 0
FLAG 16 112 output3
FLAG -272 256 0
FLAG -544 416 0
FLAG -480 784 0
FLAG -480 672 24V
FLAG -272 -64 24V
FLAG 304 -192 20V
FLAG 304 416 0
FLAG 864 176 0
FLAG 560 688 0
FLAG 768 576 0
FLAG 768 400 5V
DATAFLAG -368 32 ""
DATAFLAG -400 192 ""
DATAFLAG -112 112 ""
DATAFLAG 464 80 ""
DATAFLAG 464 112 ""
DATAFLAG 608 512 ""
DATAFLAG 880 496 ""
SYMBOL voltage -720 672 R0
WINDOW 123 0 0 Left 0
WINDOW 39 0 0 Left 0
SYMATTR InstName V3
SYMATTR Value -5
SYMBOL voltage -640 672 R0
WINDOW 123 0 0 Left 0
WINDOW 39 0 0 Left 0
SYMATTR InstName V4
SYMATTR Value 3.3
SYMBOL voltage -560 672 R0
WINDOW 123 0 0 Left 0
WINDOW 39 0 0 Left 0
SYMATTR InstName V5
SYMATTR Value 50
SYMBOL OpAmps\\AD8227 -272 112 R0
SYMATTR InstName U7
SYMBOL res -416 48 R0
SYMATTR InstName R17
SYMATTR Value 8000
SYMBOL res -528 160 R180
WINDOW 0 36 76 Left 2
WINDOW 3 36 40 Left 2
SYMATTR InstName Rshunt3
SYMATTR Value 0.1
SYMBOL res -560 320 R0
SYMATTR InstName Rload3
SYMATTR Value 6
SYMBOL voltage -480 672 R0
WINDOW 123 0 0 Left 0
WINDOW 39 0 0 Left 0
SYMATTR InstName V2
SYMATTR Value 15
SYMBOL AD8212 720 112 R0
SYMATTR InstName U1
SYMBOL res 320 160 R180
WINDOW 0 36 76 Left 2
WINDOW 3 36 40 Left 2
SYMATTR InstName Rshunt1
SYMATTR Value 0.1
SYMBOL res 288 320 R0
SYMATTR InstName Rload1
SYMATTR Value 25
SYMBOL res 544 560 R0
SYMATTR InstName R1
SYMATTR Value 15K
SYMBOL res 832 368 R0
SYMATTR InstName R2
SYMATTR Value 100
SYMBOL OpAmps\\AD8603 768 432 R0
SYMATTR InstName U2
TEXT -1048 696 Left 2 ;.tran 0 1 0 0.1
TEXT -1048 728 Left 2 !.op
