Version 4.1
SHEET 1 3428 712
WIRE 1456 -1168 1392 -1168
WIRE 1632 -1168 1456 -1168
WIRE 1712 -1168 1632 -1168
WIRE 1760 -1168 1712 -1168
WIRE 1872 -1168 1760 -1168
WIRE 1968 -1168 1872 -1168
WIRE 2192 -1168 1968 -1168
WIRE 2288 -1168 2192 -1168
WIRE 2496 -1168 2368 -1168
WIRE 2608 -1168 2496 -1168
WIRE 2720 -1168 2672 -1168
WIRE 2800 -1168 2720 -1168
WIRE 3072 -1168 2800 -1168
WIRE 1632 -1136 1632 -1168
WIRE 1712 -1136 1712 -1168
WIRE 2800 -1136 2800 -1168
WIRE 2368 -1120 2000 -1120
WIRE 1456 -1088 1456 -1168
WIRE 2720 -1088 2720 -1168
WIRE 1872 -1072 1872 -1168
WIRE 1968 -1056 1968 -1168
WIRE 2016 -1056 1968 -1056
WIRE 2192 -1056 2192 -1168
WIRE 1968 -1024 1968 -1056
WIRE 1632 -1008 1632 -1072
WIRE 1712 -1008 1712 -1072
WIRE 2016 -1008 2016 -1056
WIRE 2032 -1008 2016 -1008
WIRE 2368 -1008 2368 -1120
WIRE 2368 -1008 2352 -1008
WIRE 1456 -992 1456 -1024
WIRE 2000 -992 2000 -1120
WIRE 2000 -992 1872 -992
WIRE 2720 -992 2720 -1024
WIRE 2800 -976 2800 -1056
WIRE 2800 -976 2576 -976
WIRE 3072 -976 3072 -1168
WIRE 1872 -960 1872 -992
WIRE 1968 -928 1968 -960
WIRE 1760 -912 1760 -1168
WIRE 2032 -912 1760 -912
WIRE 2496 -912 2496 -1168
WIRE 2496 -912 2352 -912
WIRE 2800 -912 2800 -976
WIRE 2496 -896 2496 -912
WIRE 1872 -848 1872 -880
WIRE 2032 -816 1792 -816
WIRE 2448 -816 2352 -816
WIRE 2496 -752 2496 -800
WIRE 3072 -752 3072 -896
WIRE 1792 -720 1792 -816
WIRE 1792 -720 1728 -720
WIRE 2032 -720 1952 -720
WIRE 2576 -720 2576 -976
WIRE 2576 -720 2352 -720
WIRE 1952 -688 1952 -720
WIRE 2192 -640 2192 -672
WIRE 2800 -640 2800 -832
WIRE 1728 -624 1728 -720
WIRE 1792 -624 1792 -640
WIRE 1952 -592 1952 -608
WIRE 1728 -544 1728 -560
WIRE 1744 -544 1728 -544
WIRE 1792 -544 1792 -560
WIRE 1792 -544 1744 -544
WIRE 1744 -512 1744 -544
WIRE 1248 32 1248 -16
WIRE 1328 32 1328 -16
WIRE 1248 144 1248 112
WIRE 1328 144 1328 112
FLAG 1248 -16 12V1
FLAG 1248 144 0
FLAG 1456 -992 0
FLAG 1632 -1008 0
FLAG 2720 -992 0
FLAG 2800 -640 0
FLAG 3072 -1168 48v2
FLAG 1328 -16 12V2
FLAG 1328 144 0
FLAG 1392 -1168 12V2
FLAG 3072 -752 0
FLAG 2496 -752 0
FLAG 1872 -848 0
FLAG 1968 -928 0
FLAG 1744 -512 0
FLAG 1952 -592 0
FLAG 2192 -640 0
FLAG 1712 -1008 0
DATAFLAG 3024 -1168 ""
SYMBOL voltage 1248 16 R0
WINDOW 123 0 0 Left 0
WINDOW 39 0 0 Left 0
SYMATTR InstName V1
SYMATTR Value 12
SYMBOL TVSdiode 1440 -1088 R0
SYMATTR InstName D3
SYMATTR Value SMBJ24CA
SYMBOL cap 1616 -1136 R0
SYMATTR InstName C8
SYMATTR Value 22에
SYMATTR SpiceLine V=35
SYMBOL nmos 2448 -896 R0
SYMATTR InstName M2
SYMATTR Value IPD135N03L
SYMBOL diode 2608 -1152 R270
WINDOW 0 32 32 VTop 2
WINDOW 3 0 32 VBottom 2
SYMATTR InstName D4
SYMATTR Value RB055LAM-60
SYMBOL cap 2704 -1088 R0
SYMATTR InstName C9
SYMATTR Value 444에
SYMATTR SpiceLine V=63
SYMBOL ind 2384 -1184 R90
WINDOW 0 5 56 VBottom 2
WINDOW 3 32 56 VTop 2
SYMATTR InstName L2
SYMATTR Value 15에
SYMBOL res 2784 -1152 R0
SYMATTR InstName R6
SYMATTR Value 3.9Meg
SYMBOL res 2784 -928 R0
SYMATTR InstName R7
SYMATTR Value 100k
SYMBOL res 3056 -992 R0
SYMATTR InstName R10
SYMATTR Value 24
SYMBOL voltage 1328 16 R0
WINDOW 123 0 0 Left 0
WINDOW 39 0 0 Left 0
SYMATTR InstName V2
SYMATTR Value PWL(0 0 100u 12)
SYMBOL PowerProducts\\LTC1871 2192 -864 R0
SYMATTR InstName U1
SYMBOL res 1856 -1088 R0
SYMATTR InstName R1
SYMATTR Value 510k
SYMBOL res 1856 -976 R0
SYMATTR InstName R2
SYMATTR Value 100k
SYMBOL cap 1952 -1024 R0
SYMATTR InstName C1
SYMATTR Value 4.7에
SYMBOL cap 1776 -624 R0
SYMATTR InstName C2
SYMATTR Value 6.8n
SYMBOL cap 1712 -624 R0
SYMATTR InstName C3
SYMATTR Value 47p
SYMBOL res 1776 -736 R0
SYMATTR InstName R3
SYMATTR Value 22k
SYMBOL res 1936 -704 R0
SYMATTR InstName R4
SYMATTR Value 110k
SYMBOL cap 1696 -1136 R0
SYMATTR InstName C4
SYMATTR Value 22에
SYMATTR SpiceLine V=35
TEXT 2120 -384 Left 2 !.tran 0 10 0 0.000001
